Circuit: * C:\Users\Michael Biselx\Documents\LTspiceXVII\Projet Elec\Draft1.asc

Fatal Error: Unknown subcircuit called in:
   xx1 n002 n003 magic box
