Circuit: * C:\Users\Michael Biselx\Documents\LTspiceXVII\Projet Elec\Magic Box.asc

WARNING: Less than two connections to node X6:U1:MRN.  This node is used by A:X6:U1:R.
WARNING: Less than two connections to node X6:NC_01.  This node is used by R:X6:U1:OUT5:OUT.
WARNING: Less than two connections to node X6:NC_02.  This node is used by R:X6:U1:OUT6:OUT.
WARNING: Less than two connections to node X6:NC_03.  This node is used by R:X6:U1:OUT7:OUT.
WARNING: Less than two connections to node X6:NC_04.  This node is used by R:X6:U1:OUT8:OUT.
WARNING: Less than two connections to node X6:NC_05.  This node is used by R:X6:U1:OUT9:OUT.
WARNING: Less than two connections to node X6:NC_06.  This node is used by R:X6:U1:OUT10:OUT.
WARNING: Less than two connections to node X6:NC_07.  This node is used by R:X6:U1:OUT11:OUT.
WARNING: Less than two connections to node X6:NC_08.  This node is used by R:X6:U1:OUT12:OUT.
WARNING: Less than two connections to node N015.  This node is used by R:X6:U10:OUT:OUT.
WARNING: Less than two connections to node NC_01.  This node is used by R:U6:OUT2:OUT.
Direct Newton iteration failed to find .op point.  (Use ".option noopiter" to skip.)
Starting Gmin stepping
Increasing initial diagonal Gmin to 100
Increasing initial diagonal Gmin to 1000
Gmin = 1000
vernier = 0.5
vernier = 0.25
vernier = 0.125
vernier = 0.0625
Gmin = 836.601
vernier = 0.03125
vernier = 0.015625
vernier = 0.0078125
vernier = 0.00390625
Gmin = 822.125
vernier = 0.00195313
vernier = 0.000976563
vernier = 0.000488281
Gmin = 0
Gmin = 0
Gmin stepping failed

Starting source stepping with srcstepmethod=0
Source Step = 3.0303%
Source Step = 33.3333%
Source Step = 63.6364%
Source Step = 93.9394%
Source stepping succeeded in finding the operating point.

Ignoring empty pin current: Ix(u5:vc+)
Ignoring empty pin current: Ix(u5:vc-)
Ignoring empty pin current: Ix(u5:vout+)
Ignoring empty pin current: Ix(u5:vout-)
Ignoring empty pin current: Ix(u6:vc+)
Ignoring empty pin current: Ix(u6:vc-)
Ignoring empty pin current: Ix(u6:vout+)
Ignoring empty pin current: Ix(u6:vout-)
Ignoring empty pin current: Ix(u3:vc+)
Ignoring empty pin current: Ix(u3:vc-)
Ignoring empty pin current: Ix(u3:vout+)
Ignoring empty pin current: Ix(u3:vout-)
Ignoring empty pin current: Ix(u1:vc+)
Ignoring empty pin current: Ix(u1:vc-)
Ignoring empty pin current: Ix(u1:vout+)
Ignoring empty pin current: Ix(u1:vout-)
Ignoring empty pin current: Ix(u8:a)
Ignoring empty pin current: Ix(u8:c)
Ignoring empty pin current: Ix(u2:a)
Ignoring empty pin current: Ix(u2:c)
Ignoring empty pin current: Ix(u4:vc+)
Ignoring empty pin current: Ix(u4:vc-)
Ignoring empty pin current: Ix(u4:iout+)
Ignoring empty pin current: Ix(u4:iout-)
Ignoring empty pin current: Ix(u10:a)
Ignoring empty pin current: Ix(u10:c)
Ignoring empty pin current: Ix(u7:1)
Ignoring empty pin current: Ix(u7:2)
Ignoring empty pin current: Ix(u7:4)
Ignoring empty pin current: Ix(u9:in)
Ignoring empty pin current: Ix(u9:out)
Ignoring empty pin current: Ix(u9:vcc)
Ignoring empty pin current: Ix(u9:gnd)
Ignoring empty pin current: Ix(u9:nout)
Ignoring empty pin current: Ix(u5:vc+)
Ignoring empty pin current: Ix(u5:vc-)
Ignoring empty pin current: Ix(u5:vout+)
Ignoring empty pin current: Ix(u5:vout-)
Ignoring empty pin current: Ix(u6:vc+)
Ignoring empty pin current: Ix(u6:vc-)
Ignoring empty pin current: Ix(u6:vout+)
Ignoring empty pin current: Ix(u6:vout-)
Ignoring empty pin current: Ix(u3:vc+)
Ignoring empty pin current: Ix(u3:vc-)
Ignoring empty pin current: Ix(u3:vout+)
Ignoring empty pin current: Ix(u3:vout-)
Ignoring empty pin current: Ix(u1:vc+)
Ignoring empty pin current: Ix(u1:vc-)
Ignoring empty pin current: Ix(u1:vout+)
Ignoring empty pin current: Ix(u1:vout-)
Ignoring empty pin current: Ix(u8:a)
Ignoring empty pin current: Ix(u8:c)
Ignoring empty pin current: Ix(u2:a)
Ignoring empty pin current: Ix(u2:c)
Ignoring empty pin current: Ix(u4:vc+)
Ignoring empty pin current: Ix(u4:vc-)
Ignoring empty pin current: Ix(u4:iout+)
Ignoring empty pin current: Ix(u4:iout-)
Ignoring empty pin current: Ix(u10:a)
Ignoring empty pin current: Ix(u10:c)
Ignoring empty pin current: Ix(u7:1)
Ignoring empty pin current: Ix(u7:2)
Ignoring empty pin current: Ix(u7:4)
Ignoring empty pin current: Ix(u9:in)
Ignoring empty pin current: Ix(u9:out)
Ignoring empty pin current: Ix(u9:vcc)
Ignoring empty pin current: Ix(u9:gnd)
Ignoring empty pin current: Ix(u9:nout)
Heightened Def Con from 0.0025545 +++++++++++to 0.0025545
Heightened Def Con from 0.0025545 to 0.0025545

Date: Sat Mar 28 18:04:32 2020
Total elapsed time: 12.119 seconds.

tnom = 27
temp = 27
method = modified trap
totiter = 102253
traniter = 100106
tranpoints = 33782
accept = 26031
rejected = 7764
matrix size = 523
fillins = 437
solver = Normal
Thread vector: 89.1/46.0[4] 50.0/16.5[4] 33.8/13.2[4] 3.5/3.4[2]  2592/500
Matrix Compiler1: 40.90 KB object code size  23.8/13.1/[5.3]
Matrix Compiler2: 40.94 KB object code size  14.5/30.6/[7.9]

