Circuit: * C:\Users\Michael Biselx\Documents\LTspiceXVII\Projet Elec\Magic Box.asc

WARNING: Less than two connections to node X7:X1:U1:MRN.  This node is used by A:X7:X1:U1:R.
WARNING: Less than two connections to node X7:X1:NC_01.  This node is used by R:X7:X1:U1:OUT5:OUT.
WARNING: Less than two connections to node X7:X1:NC_02.  This node is used by R:X7:X1:U1:OUT6:OUT.
WARNING: Less than two connections to node X7:X1:NC_03.  This node is used by R:X7:X1:U1:OUT7:OUT.
WARNING: Less than two connections to node X7:X1:NC_04.  This node is used by R:X7:X1:U1:OUT8:OUT.
WARNING: Less than two connections to node X7:X1:NC_05.  This node is used by R:X7:X1:U1:OUT9:OUT.
WARNING: Less than two connections to node X7:X1:NC_06.  This node is used by R:X7:X1:U1:OUT10:OUT.
WARNING: Less than two connections to node X7:X1:NC_07.  This node is used by R:X7:X1:U1:OUT11:OUT.
WARNING: Less than two connections to node X7:X1:NC_08.  This node is used by R:X7:X1:U1:OUT12:OUT.
WARNING: Less than two connections to node X7:NC_01.  This node is used by R:X7:X1:U10:OUT:OUT.
WARNING: Less than two connections to node X6:NC_01.  This node is used by R:X6:U1:OUT2:OUT.
Direct Newton iteration failed to find .op point.  (Use ".option noopiter" to skip.)
Starting Gmin stepping
Increasing initial diagonal Gmin to 100
Increasing initial diagonal Gmin to 1000
Gmin = 1000
vernier = 0.5
vernier = 0.25
vernier = 0.125
vernier = 0.0625
Gmin = 836.601
vernier = 0.03125
vernier = 0.015625
vernier = 0.0078125
vernier = 0.00390625
Gmin = 822.125
vernier = 0.00195313
vernier = 0.000976563
vernier = 0.000488281
Gmin = 0
Gmin = 0
Gmin stepping failed

Starting source stepping with srcstepmethod=0
Source Step = 3.0303%
Source Step = 33.3333%
Source Step = 63.6364%
Source Step = 93.9394%
Source stepping succeeded in finding the operating point.

Ignoring empty pin current: Ix(u5:vc+)
Ignoring empty pin current: Ix(u5:vc-)
Ignoring empty pin current: Ix(u5:vout+)
Ignoring empty pin current: Ix(u5:vout-)
Ignoring empty pin current: Ix(u3:vc+)
Ignoring empty pin current: Ix(u3:vc-)
Ignoring empty pin current: Ix(u3:vout+)
Ignoring empty pin current: Ix(u3:vout-)
Ignoring empty pin current: Ix(u1:vc+)
Ignoring empty pin current: Ix(u1:vc-)
Ignoring empty pin current: Ix(u1:vout+)
Ignoring empty pin current: Ix(u1:vout-)
Ignoring empty pin current: Ix(u8:a)
Ignoring empty pin current: Ix(u8:c)
Ignoring empty pin current: Ix(u2:a)
Ignoring empty pin current: Ix(u2:c)
Ignoring empty pin current: Ix(u4:vc+)
Ignoring empty pin current: Ix(u4:vc-)
Ignoring empty pin current: Ix(u4:iout+)
Ignoring empty pin current: Ix(u4:iout-)
Ignoring empty pin current: Ix(u10:a)
Ignoring empty pin current: Ix(u10:c)
Ignoring empty pin current: Ix(u7:1)
Ignoring empty pin current: Ix(u7:2)
Ignoring empty pin current: Ix(u7:3)
Ignoring empty pin current: Ix(u7:4)
Ignoring empty pin current: Ix(u9:in)
Ignoring empty pin current: Ix(u9:out)
Ignoring empty pin current: Ix(u9:vcc)
Ignoring empty pin current: Ix(u9:gnd)
Ignoring empty pin current: Ix(u9:nout)
Ignoring empty pin current: Ix(u5:vc+)
Ignoring empty pin current: Ix(u5:vc-)
Ignoring empty pin current: Ix(u5:vout+)
Ignoring empty pin current: Ix(u5:vout-)
Ignoring empty pin current: Ix(u3:vc+)
Ignoring empty pin current: Ix(u3:vc-)
Ignoring empty pin current: Ix(u3:vout+)
Ignoring empty pin current: Ix(u3:vout-)
Ignoring empty pin current: Ix(u1:vc+)
Ignoring empty pin current: Ix(u1:vc-)
Ignoring empty pin current: Ix(u1:vout+)
Ignoring empty pin current: Ix(u1:vout-)
Ignoring empty pin current: Ix(u8:a)
Ignoring empty pin current: Ix(u8:c)
Ignoring empty pin current: Ix(u2:a)
Ignoring empty pin current: Ix(u2:c)
Ignoring empty pin current: Ix(u4:vc+)
Ignoring empty pin current: Ix(u4:vc-)
Ignoring empty pin current: Ix(u4:iout+)
Ignoring empty pin current: Ix(u4:iout-)
Ignoring empty pin current: Ix(u10:a)
Ignoring empty pin current: Ix(u10:c)
Ignoring empty pin current: Ix(u7:1)
Ignoring empty pin current: Ix(u7:2)
Ignoring empty pin current: Ix(u7:3)
Ignoring empty pin current: Ix(u7:4)
Ignoring empty pin current: Ix(u9:in)
Ignoring empty pin current: Ix(u9:out)
Ignoring empty pin current: Ix(u9:vcc)
Ignoring empty pin current: Ix(u9:gnd)
Ignoring empty pin current: Ix(u9:nout)

Date: Tue Mar 31 08:28:11 2020
Total elapsed time: 8.408 seconds.

tnom = 27
temp = 27
method = modified trap
totiter = 87170
traniter = 84981
tranpoints = 29081
accept = 22439
rejected = 6642
matrix size = 527
fillins = 404
solver = Normal
Thread vector: 43.6/23.8[4] 41.1/12.6[4] 27.9/10.4[4] 1.5/5.3[1]  2592/500
Matrix Compiler1: 39.01 KB object code size  21.2/10.7/[4.3]
Matrix Compiler2: 40.46 KB object code size  11.8/15.9/[3.8]

