Circuit: * C:\Users\Michael Biselx\Documents\LTspiceXVII\Projet Elec\Magic Box.asc

WARNING: Less than two connections to node X7:X1:U1:MRN.  This node is used by A:X7:X1:U1:R.
WARNING: Less than two connections to node X7:X1:NC_01.  This node is used by R:X7:X1:U1:OUT5:OUT.
WARNING: Less than two connections to node X7:X1:NC_02.  This node is used by R:X7:X1:U1:OUT6:OUT.
WARNING: Less than two connections to node X7:X1:NC_03.  This node is used by R:X7:X1:U1:OUT7:OUT.
WARNING: Less than two connections to node X7:X1:NC_04.  This node is used by R:X7:X1:U1:OUT8:OUT.
WARNING: Less than two connections to node X7:X1:NC_05.  This node is used by R:X7:X1:U1:OUT9:OUT.
WARNING: Less than two connections to node X7:X1:NC_06.  This node is used by R:X7:X1:U1:OUT10:OUT.
WARNING: Less than two connections to node X7:X1:NC_07.  This node is used by R:X7:X1:U1:OUT11:OUT.
WARNING: Less than two connections to node X7:X1:NC_08.  This node is used by R:X7:X1:U1:OUT12:OUT.
WARNING: Less than two connections to node X7:NC_01.  This node is used by R:X7:X1:U10:OUT:OUT.
WARNING: Less than two connections to node X6:NC_01.  This node is used by R:X6:U1:OUT2:OUT.
Direct Newton iteration failed to find .op point.  (Use ".option noopiter" to skip.)
Starting Gmin stepping
Increasing initial diagonal Gmin to 100
Increasing initial diagonal Gmin to 1000
Gmin = 1000
vernier = 0.5
vernier = 0.25
vernier = 0.125
vernier = 0.0625
Gmin = 836.601
vernier = 0.03125
vernier = 0.015625
vernier = 0.0078125
vernier = 0.00390625
Gmin = 822.125
vernier = 0.00195313
vernier = 0.000976563
vernier = 0.000488281
Gmin = 0
Gmin = 0
Gmin stepping failed

Starting source stepping with srcstepmethod=0
Source Step = 3.0303%
Source Step = 33.3333%
Source Step = 63.6364%
Source Step = 93.9394%
Source stepping succeeded in finding the operating point.

Ignoring empty pin current: Ix(u5:vc+)
Ignoring empty pin current: Ix(u5:vc-)
Ignoring empty pin current: Ix(u5:vout+)
Ignoring empty pin current: Ix(u5:vout-)
Ignoring empty pin current: Ix(u3:vc+)
Ignoring empty pin current: Ix(u3:vc-)
Ignoring empty pin current: Ix(u3:vout+)
Ignoring empty pin current: Ix(u3:vout-)
Ignoring empty pin current: Ix(u1:vc+)
Ignoring empty pin current: Ix(u1:vc-)
Ignoring empty pin current: Ix(u1:vout+)
Ignoring empty pin current: Ix(u1:vout-)
Ignoring empty pin current: Ix(u8:a)
Ignoring empty pin current: Ix(u8:c)
Ignoring empty pin current: Ix(u2:a)
Ignoring empty pin current: Ix(u2:c)
Ignoring empty pin current: Ix(u4:vc+)
Ignoring empty pin current: Ix(u4:vc-)
Ignoring empty pin current: Ix(u4:iout+)
Ignoring empty pin current: Ix(u4:iout-)
Ignoring empty pin current: Ix(u10:a)
Ignoring empty pin current: Ix(u10:c)
Ignoring empty pin current: Ix(u7:1)
Ignoring empty pin current: Ix(u7:2)
Ignoring empty pin current: Ix(u7:3)
Ignoring empty pin current: Ix(u7:4)
Ignoring empty pin current: Ix(u9:in)
Ignoring empty pin current: Ix(u9:out)
Ignoring empty pin current: Ix(u9:vcc)
Ignoring empty pin current: Ix(u9:gnd)
Ignoring empty pin current: Ix(u9:nout)
Ignoring empty pin current: Ix(u5:vc+)
Ignoring empty pin current: Ix(u5:vc-)
Ignoring empty pin current: Ix(u5:vout+)
Ignoring empty pin current: Ix(u5:vout-)
Ignoring empty pin current: Ix(u3:vc+)
Ignoring empty pin current: Ix(u3:vc-)
Ignoring empty pin current: Ix(u3:vout+)
Ignoring empty pin current: Ix(u3:vout-)
Ignoring empty pin current: Ix(u1:vc+)
Ignoring empty pin current: Ix(u1:vc-)
Ignoring empty pin current: Ix(u1:vout+)
Ignoring empty pin current: Ix(u1:vout-)
Ignoring empty pin current: Ix(u8:a)
Ignoring empty pin current: Ix(u8:c)
Ignoring empty pin current: Ix(u2:a)
Ignoring empty pin current: Ix(u2:c)
Ignoring empty pin current: Ix(u4:vc+)
Ignoring empty pin current: Ix(u4:vc-)
Ignoring empty pin current: Ix(u4:iout+)
Ignoring empty pin current: Ix(u4:iout-)
Ignoring empty pin current: Ix(u10:a)
Ignoring empty pin current: Ix(u10:c)
Ignoring empty pin current: Ix(u7:1)
Ignoring empty pin current: Ix(u7:2)
Ignoring empty pin current: Ix(u7:3)
Ignoring empty pin current: Ix(u7:4)
Ignoring empty pin current: Ix(u9:in)
Ignoring empty pin current: Ix(u9:out)
Ignoring empty pin current: Ix(u9:vcc)
Ignoring empty pin current: Ix(u9:gnd)
Ignoring empty pin current: Ix(u9:nout)
Heightened Def Con from 0.0115394 ++++++++++++++++++++++++to 0.0115394
Heightened Def Con from 0.0115394 ++++++++++++++++++++to 0.0115394

Date: Tue Mar 31 18:56:48 2020
Total elapsed time: 9.919 seconds.

tnom = 27
temp = 27
method = modified trap
totiter = 96002
traniter = 93783
tranpoints = 30983
accept = 23631
rejected = 7398
matrix size = 563
fillins = 522
solver = Normal
Thread vector: 45.9/35.0[4] 47.8/22.8[4] 45.3/15.2[4] 1.7/3.4[1]  2592/500
Matrix Compiler1: 48.59 KB object code size  25.9/13.2/[5.1]
Matrix Compiler2: 46.00 KB object code size  13.5/17.0/[4.7]

